$DATA1 SOURCE='PrimeSim HSPICE' VERSION='T-2022.06-SP1 linux64' PARAM_COUNT=0
.TITLE 'ece 482 project testbench'
 avg_pwr_vdd      avg_pwr_vddio    temper           alter#          
 -2.063e-02       -2.404e-04         25.0000        1               
