Using: /software/Synopsys-2022_x86_64/hspice/T-2022.06-SP1/hspice/linux64/hspice ./superbuf_stage4.cir
 ****** PrimeSim HSPICE -- T-2022.06-SP1 linux64 (Aug 19 2022 7764626) ******
  Copyright (c) 1986 - 2025 by Synopsys, Inc. All Rights Reserved.
  This software and the associated documentation are proprietary
  to Synopsys, Inc. This software may only be used in accordance
  with the terms and conditions of a written license agreement with
  Synopsys, Inc. All other use, reproduction, or distribution of
  this software is strictly prohibited.
  Input File: ./superbuf_stage4.cir                                             
  Command line options: /software/Synopsys-2022_x86_64/hspice/T-2022.06-SP1/hspice/linux64/hspice ./superbuf_stage4.cir
  Start time: Fri Dec  5 17:51:54 2025
 lic:  
 lic: FLEXlm: SDK_12.11.1 
 lic: USER:   jstreck2             HOSTNAME: dcl-l440-28.ews.illinois.edu 
 lic: HOSTID: 7e829cf6             PID:      21477 
 lic: Using FLEXlm license file: 
 lic: 27005@synopsys.webstore.illinois.edu 
 lic: Checkout 1 hspice 
 lic: License/Maintenance for hspice will expire on 15-apr-2026/2024.09 
 lic: 1(in_use)/150(total) FLOATING license(s) on SERVER 27005@synopsys.webstore.illinois.edu 
 lic:   
  **warning** (/class/ece482/gpdk045_mos_details:465) Model g45n2svt device geometries will not be checked against the limits set by lmin, lmax, wmin and wmax. To enable this check, add a period(.) to the model name(i.e. enable model selector).
1****** PrimeSim HSPICE -- T-2022.06-SP1 linux64 (Aug 19 2022 7764626) ******
 ******  
 cmos inverter

 ****** mos   model parameters tnom=  25.000 temp=  25.000 ******
 Model file: /class/ece482/gpdk045_mos_details
 Model line:          465
 Model Name: g45n2svt  
 BSIM4 Model (Level 54)
    MOBMOD = 0
    BINUNIT = 2
    PARAMCHK = 1
    CAPMOD = 2
    DIOMOD = 1
    RDSMOD = 0
    TRNQSMOD = 0
    ACNQSMOD = 0
    RBODYMOD = 0
    RGATEMOD = 0
    PERMOD = 1
    GEOMOD = 0
    RGEOMOD = 0
    FNOIMOD = 1
    TNOIMOD = 0
    IGCMOD = 1
    IGBMOD = 1
    STIMOD = 1
    VBFWDMOD = 0
    VERSION =    4.3 
    TOXREF =  3e-09 
    TOXE = 3.49e-09 
    TOXP = 3.17e-09 
    TOXM = 3.49e-09 
    DTOX = 3.2e-10 
    EPSROX =    3.9 
    CDSC =      0 
    CDSCB =      0 
    CDSCD =      0 
    CIT = 0.0007212 
    NFACTOR =  1.622 
    XJ = 8.1e-08 
    VSAT = 1.151e+05 
    A0 =  1.082 
    AGS =  1.052 
    A1 =      0 
    A2 =      1 
    AT =  7e+04 
    KETA = -0.05194 
    NSUB =  6e+16 
    NDEP =  1e+17 
    NSD =  1e+20 
    NGATE = 1.6e+20 
    GAMMA1 =      0 
    GAMMA2 =      0 
    VBX =      0 
    VBM =     -3 
    XT = 1.55e-07 
    K1 = 0.3026 
    KT1 = -0.2353 
    KT1L =      0 
    KT2 = -0.036 
    K2 = -0.01213 
    K3 = -5.685 
    K3B =  2.455 
    LPE0 = 6.61e-08 
    LPEB =  2e-08 
    DVTP0 = 2.361e-06 
    DVTP1 =    4.5 
    W0 = 8.19e-08 
    DVT0 = 0.2364 
    DVT1 = 0.5374 
    DVT2 = 0.05567 
    DVT0W =      0 
    DVT1W =      0 
    DVT2W =      0 
    DROUT =   0.56 
    DSUB = 0.4222 
    VTH0 = 0.3833 
    EU =   1.67 
    UA = -9.5e-10 
    UA1 = 8.32e-10 
    UB = 2.092e-18 
    UB1 =      0 
    UC = 7.758e-11 
    UC1 = 4.355e-11 
    U0 = 0.03106 
    UTE =   -0.9 
    VOFF = -0.1556 
    VOFFL = -3.595e-09 
    MINV =  -0.15 
    FPROUT =    300 
    PDITS =      0 
    PDITSD =      0 
    PDITSL =      0 
    DELTA = 0.007596 
    RDSW =    100 
    RDSWMIN =      0 
    RDWMIN =      0 
    RSWMIN =      0 
    RDW =    100 
    RSW =    100 
    PRWG =      0 
    PRWB =      0 
    PRT =      0 
    ETA0 = 0.001805 
    ETAB = -0.01268 
    PCLM =  1.239 
    PDIBLC1 = 0.000453 
    PDIBLC2 = 0.007802 
    PDIBLCB =      1 
    PSCBE1 =  1e+09 
    PSCBE2 =  1e-20 
    PVAG =    0.9 
    WR =      1 
    DWG =      0 
    DWB =      0 
    XW =  9e-09 
    XWREF =  9e-09 
    XL = -9e-09 
    XLREF = -9e-09 
    B0 =      0 
    B1 =      0 
    ALPHA0 =  2e-10 
    ALPHA1 =   0.01 
    AGIDL = 1.151e-07 
    BGIDL = 2.692e+09 
    CGIDL =   0.24 
    PHIN =      0 
    EGIDL =   0.24 
    AIGC =  0.012 
    BIGC = 0.00141 
    CIGC = 0.000572 
    AIGSD = 0.0116 
    BIGSD = 0.0013 
    CIGSD =  0.073 
    AIGBACC = 0.0211 
    BIGBACC = 0.00244 
    CIGBACC =  0.312 
    AIGBINV =  0.017 
    BIGBINV = 0.0043 
    CIGBINV = 0.0057 
    NIGC =   2.97 
    NIGBINV =      6 
    NIGBACC =      6 
    NTOX =      1 
    EIGBINV =   1.04 
    PIGCD =    2.4 
    POXEDGE =      1 
    XRCRG1 =     12 
    TNOIA =    1.5 
    TNOIB =    3.5 
    NTNOI =      1 
    XRCRG2 =      1 
    BETA0 =    6.4 
    IJTHDFWD =   0.01 
    IJTHSFWD =   0.01 
    IJTHDREV =   0.01 
    IJTHSREV =   0.01 
    XJBVD =      1 
    XJBVS =      1 
    BVD =     10 
    BVS =     10 
    VFB =     -1 
    GBMIN =  1e-12 
    RBDB =     50 
    RBPB =     50 
    RBSB =     50 
    RBPS =     50 
    RBPD =     50 
    CGSL = 2.953e-11 
    CGDL = 2.953e-11 
    CKAPPAS =    0.6 
    CKAPPAD =    0.6 
    CF = 6.13e-11 
    CLC = 1.04e-07 
    CLE =    0.6 
    DWC =      0 
    DLC =      0 
    DLCIG = 2.43e-09 
    DWJ =      0 
    VFBCV =     -1 
    ACDE =      1 
    MOIN =   5.67 
    NOFF =    1.6 
    VOFFCV = -0.097 
    DMCG =  4e-08 
    DMCI =  4e-08 
    DMDG =      0 
    DMCGT =      0 
    XGW =      0 
    XGL =      0 
    RSHG =   15.5 
    NGCON =      1 
    TCJ = 0.000652 
    TPB = 0.0011 
    TCJSW = 0.000357 
    TPBSW = 0.0019 
    TCJSWG = 0.0015 
    TPBSWG =  0.001 
    SK0 =      0 
    SK1 =      0 
    SK2 =      0 
    SL =  2e-06 
    SW =  2e-06 
    K =      0 
    LVTH0 = -4e-09 
    LU0 = -3.44e-10 
    WVSAT = -0.0025 
    WAGS = -5e-08 
    WVTH0 = -6.6e-09 
    WU0 = 4.6e-11 
    PVTH0 = -2.5e-16 
    PU0 =  4e-18 
    TNOM =  298.1 
    CGSO = 3.412e-11 
    CGDO = 3.412e-11 
    CGBO =      0 
    XPART =      1 
    RSH =   17.5 
    JSS = 4.14e-07 
    JSWS = 9.7e-13 
    JSWGS = 1.4e-12 
    PBS =  0.511 
    MJS =   0.31 
    PBSWS =  0.786 
    MJSWS =  0.081 
    CJS = 0.0007855 
    CJSWS = 9.527e-11 
    NJS =      1 
    PBSWGS =    0.7 
    MJSWGS =  0.511 
    CJSWGS = 1.121e-10 
    XTIS =      3 
    JSD = 4.14e-07 
    JSWD = 9.7e-13 
    JSWGD = 1.4e-12 
    PBD =  0.511 
    MJD =   0.31 
    PBSWD =  0.786 
    MJSWD =  0.081 
    CJD = 0.0007855 
    CJSWD = 9.527e-11 
    NJD =      1 
    PBSWGD =    0.7 
    MJSWGD =  0.511 
    CJSWGD = 1.121e-10 
    XTID =      3 
    LMLT =      1 
    WMLT =      1 
    LINT =  1e-09 
    LL =      0 
    LLC =      0 
    LLN =      1 
    LW =      0 
    LWC =      0 
    LWN =      1 
    LWL =      0 
    LWLC =      0 
    LMIN = 1.5e-07 
    LMAX = 1.009e-06 
    WINT =  2e-09 
    WL =      0 
    WLC =      0 
    WLN =      1 
    WW =      0 
    WWC =      0 
    WWN =      1 
    WWL =      0 
    WWLC =      0 
    WMIN = 3.2e-07 
    WMAX = 4.91e-07 
    NOIA = 3.1e+42 
    NOIB = 1.81e+21 
    NOIC =  3e+08 
    EM =  1e+06 
    EF =   0.86 
    AF =      1 
    KF =      0 
    TRS =      0 
    TRD =      0 
    TEMPMOD  =      0 
    LAMBDA   =      0 
    VTL      =  2e+05 m/s
    LC       =  5e-09 
    XN       =      3 
    LLAMBDA  =      0 
    LVTL     =      0 
    LXN      =      0 
    WLAMBDA  =      0 
    WVTL     =      0 
    WXN      =      0 
    PLAMBDA  =      0 
    PVTL     =      0 
    PXN      =      0 
    RNOIA    =  0.577 
    RNOIB    =   0.37 
    SAREF(SA0) = 6.1e-07 m
    SBREF(SB0) = 6.1e-07 m
    WLOD     = 1.37e-07 m
    KU0      = -2.471e-08 1/m
    KVSAT    =    0.3 
    KVTH0    = 2.1e-09 m
    TKU0     =  0.097 
    LLODKU0  =      1 
    WLODKU0  =      1 
    LLODVTH  =      1 
    WLODVTH  =      1 
    LKU0     = 1.23e-08 
    WKU0     = 9.96e-08 
    PKU0     = 4.6e-14 
    LKVTH0   = -2.421e-11 
    WKVTH0   =      0 
    PKVTH0   =      0 
    STK2     = 3.87e-10 
    LODK2    =    0.5 
    STETA0   =      0 
    LODETA0  =      1 
    LXRCRG1  =      0 
    WXRCRG1  =      0 
    PXRCRG1  =      0 
    LXRCRG2  =      0 
    WXRCRG2  =      0 
    PXRCRG2  =      0 
 Model file: /class/ece482/gpdk045_mos_details
 Model line:          575
 Model Name: g45p2svt  
 BSIM4 Model (Level 54)
    MOBMOD = 0
    BINUNIT = 2
    PARAMCHK = 1
    CAPMOD = 2
    DIOMOD = 1
    RDSMOD = 0
    TRNQSMOD = 0
    ACNQSMOD = 0
    RBODYMOD = 0
    RGATEMOD = 0
    PERMOD = 1
    GEOMOD = 0
    RGEOMOD = 0
    FNOIMOD = 1
    TNOIMOD = 0
    IGCMOD = 1
    IGBMOD = 1
    STIMOD = 1
    VBFWDMOD = 0
    VERSION =    4.3 
    TOXREF =  3e-09 
    TOXE = 3.49e-09 
    TOXP = 3.18e-09 
    TOXM = 3.49e-09 
    DTOX = 3.1e-10 
    EPSROX =    3.9 
    CDSC =      0 
    CDSCB =      0 
    CDSCD =      0 
    CIT = 0.0001 
    NFACTOR = 0.6277 
    XJ = 1.7e-07 
    VSAT = 6.573e+04 
    A0 = 0.6938 
    AGS =  1.934 
    A1 =      0 
    A2 =      1 
    AT =  4e+04 
    KETA = -0.0614 
    NSUB =  6e+16 
    NDEP = 8.5e+17 
    NSD =  1e+20 
    NGATE =  8e+19 
    GAMMA1 =      0 
    GAMMA2 =      0 
    VBX =      0 
    VBM =     -3 
    XT = 1.55e-07 
    K1 =   0.25 
    KT1 = -0.2061 
    KT1L =      0 
    KT2 = -0.01232 
    K2 = -0.01219 
    K3 =   -3.3 
    K3B =    1.2 
    LPE0 = 7.52e-08 
    LPEB = 5.608e-08 
    DVTP0 = 2.2e-06 
    DVTP1 =    0.2 
    W0 = 1.585e-07 
    DVT0 = 0.2034 
    DVT1 = 0.9515 
    DVT2 =   0.01 
    DVT0W =      0 
    DVT1W = 5.366e+06 
    DVT2W =      0 
    DROUT =  1.133 
    DSUB =  1.272 
    VTH0 = -0.3231 
    EU =      1 
    UA = 2.455e-10 
    UA1 = 4.094e-09 
    UB = 2.57e-18 
    UB1 = -4.897e-18 
    UC = 4.336e-11 
    UC1 = -5.5e-11 
    U0 = 0.02111 
    UTE = -1.219 
    VOFF = -0.05137 
    VOFFL = -6.036e-09 
    MINV =      0 
    FPROUT =  390.2 
    PDITS = 0.005043 
    PDITSD =      0 
    PDITSL =    100 
    DELTA =   0.02 
    RDSW =  327.6 
    RDSWMIN =      0 
    RDWMIN =      0 
    RSWMIN =      0 
    RDW =    100 
    RSW =    100 
    PRWG =   0.25 
    PRWB =  -0.25 
    PRT =      0 
    ETA0 = 0.03115 
    ETAB = -0.02385 
    PCLM = 0.6273 
    PDIBLC1 =      0 
    PDIBLC2 = 0.00958 
    PDIBLCB =      0 
    PSCBE1 = 9.264e+08 
    PSCBE2 =  1e-20 
    PVAG =  1.425 
    WR =      1 
    DWG =      0 
    DWB =      0 
    XW =  9e-09 
    XWREF =  9e-09 
    XL = -9e-09 
    XLREF = -9e-09 
    B0 =      0 
    B1 =      0 
    ALPHA0 =      0 
    ALPHA1 =   0.06 
    AGIDL = 7.8e-08 
    BGIDL = 2.404e+09 
    CGIDL =   0.47 
    PHIN =      0 
    EGIDL =   0.14 
    AIGC = 0.0068 
    BIGC = 0.000591 
    CIGC =      0 
    AIGSD = 0.0061 
    BIGSD = 0.000214 
    CIGSD =  0.037 
    AIGBACC =  0.014 
    BIGBACC = 0.0027 
    CIGBACC =  0.121 
    AIGBINV =   0.37 
    BIGBINV =  0.028 
    CIGBINV = 0.0064 
    NIGC =   2.31 
    NIGBINV =    1.5 
    NIGBACC =    4.8 
    NTOX =      1 
    EIGBINV =    1.2 
    PIGCD =   2.25 
    POXEDGE =      1 
    XRCRG1 =     12 
    TNOIA =    1.5 
    TNOIB =    3.5 
    NTNOI =      1 
    XRCRG2 =      1 
    BETA0 =   13.5 
    IJTHDFWD =   0.01 
    IJTHSFWD =   0.01 
    IJTHDREV =   0.01 
    IJTHSREV =   0.01 
    XJBVD =      1 
    XJBVS =      1 
    BVD =     10 
    BVS =     10 
    VFB =     -1 
    GBMIN =  1e-12 
    RBDB =     50 
    RBPB =     50 
    RBSB =     50 
    RBPS =     50 
    RBPD =     50 
    CGSL = 1.09e-10 
    CGDL = 1.09e-10 
    CKAPPAS =    0.6 
    CKAPPAD =    0.6 
    CF = 1.08e-10 
    CLC =  1e-07 
    CLE =    0.6 
    DWC =      0 
    DLC =      0 
    DLCIG = 2.21e-09 
    DWJ =      0 
    VFBCV =     -1 
    ACDE =    1.2 
    MOIN =    6.4 
    NOFF =      2 
    VOFFCV = -0.084 
    DMCG = 8.5e-08 
    DMCI = 8.5e-08 
    DMDG =      0 
    DMCGT =      0 
    XGW =      0 
    XGL =      0 
    RSHG =    0.1 
    NGCON =      1 
    TCJ = 0.000798 
    TPB = 0.0019 
    TCJSW = 0.00024 
    TPBSW = 0.0019 
    TCJSWG = 0.00477 
    TPBSWG = 0.0019 
    SK0 =      0 
    SK1 =      0 
    SK2 =      0 
    SL =  2e-06 
    SW =  2e-06 
    K =      0 
    LVTH0 = 4.12e-09 
    LU0 = -2.28e-10 
    WVTH0 = 2.8e-09 
    WUB = -3e-25 
    WU0 = 2.4e-11 
    PVTH0 = 1.723e-16 
    PU0 =  8e-18 
    TNOM =  298.1 
    CGSO = 2.398e-11 
    CGDO = 2.398e-11 
    CGBO =      0 
    XPART =      1 
    RSH =   9.68 
    JSS = 3.1e-07 
    JSWS =  1e-12 
    JSWGS = 2.87e-12 
    PBS =   0.75 
    MJS =   0.41 
    PBSWS =   0.49 
    MJSWS =  0.097 
    CJS = 0.000906 
    CJSWS = 1.027e-10 
    NJS =      1 
    PBSWGS =    0.8 
    MJSWGS =   0.88 
    CJSWGS = 2.148e-10 
    XTIS =      3 
    JSD = 3.1e-07 
    JSWD =  1e-12 
    JSWGD = 2.87e-12 
    PBD =   0.75 
    MJD =   0.41 
    PBSWD =   0.49 
    MJSWD =  0.097 
    CJD = 0.000906 
    CJSWD = 1.027e-10 
    NJD =      1 
    PBSWGD =    0.8 
    MJSWGD =   0.88 
    CJSWGD = 2.148e-10 
    XTID =      3 
    LMLT =      1 
    WMLT =      1 
    LINT =      0 
    LL =      0 
    LLC =      0 
    LLN =      1 
    LW =      0 
    LWC =      0 
    LWN =      1 
    LWL =      0 
    LWLC =      0 
    LMIN = 1.5e-07 
    LMAX = 1.009e-06 
    WINT = 1.389e-08 
    WL =      0 
    WLC =      0 
    WLN =      1 
    WW =      0 
    WWC =      0 
    WWN =      1 
    WWL =      0 
    WWLC =      0 
    WMIN = 3.2e-07 
    WMAX = 4.91e-07 
    NOIA = 7.45e+41 
    NOIB = 1.57e+26 
    NOIC =  2e+10 
    EM = 2.1e+07 
    EF =    1.3 
    AF =      1 
    KF =      0 
    TRS =      0 
    TRD =      0 
    TEMPMOD  =      0 
    LAMBDA   =      0 
    VTL      =  2e+05 m/s
    LC       =  5e-09 
    XN       =      3 
    LLAMBDA  =      0 
    LVTL     =      0 
    LXN      =      0 
    WLAMBDA  =      0 
    WVTL     =      0 
    WXN      =      0 
    PLAMBDA  =      0 
    PVTL     =      0 
    PXN      =      0 
    RNOIA    =  0.577 
    RNOIB    =   0.37 
    SAREF(SA0) = 6.1e-07 m
    SBREF(SB0) = 6.1e-07 m
    WLOD     = 2.86e-07 m
    KU0      = 1.2e-07 1/m
    KVSAT    =  -0.34 
    KVTH0    = 1.7e-10 m
    TKU0     =   0.24 
    LLODKU0  =      1 
    WLODKU0  =      1 
    LLODVTH  =    1.8 
    WLODVTH  =      1 
    LKU0     = 1.871e-07 
    WKU0     = 2.4e-07 
    PKU0     = -3.24e-14 
    LKVTH0   = 2.4e-10 
    WKVTH0   = 1.8e-10 
    PKVTH0   =      0 
    STK2     =      0 
    LODK2    =    1.9 
    STETA0   =      0 
    LODETA0  =      1 
    LXRCRG1  =      0 
    WXRCRG1  =      0 
    PXRCRG1  =      0 
    LXRCRG2  =      0 
    WXRCRG2  =      0 
    PXRCRG2  =      0 
  **info** (./superbuf_stage4.cir:2466) DC voltage reset to initial transient source value in source 0:vin. new dc=0.0000D+00
             
 Summary of Linear Res Distribution Info
 ---------------------------------------
 |Range          |Total     |Percent(%)|
 |---------------+----------+----------|
 |1e-02  ~  1e-01|48        |4.0067    |
 |1e-01  ~  1e+00|231       |19.2821   |
 |1e+00  ~  1e+03|919       |76.7112   |
 ---------------------------------------
              
             
 Summary of Linear Cap Distribution Info
 ---------------------------------------
 |Range          |Total     |Percent(%)|
 |---------------+----------+----------|
 |1e-18  ~  1e-17|3         |0.3254    |
 |1e-17  ~  1e-16|798       |86.5510   |
 |1e-16  ~  1e-15|120       |13.0152   |
 |1e-15  ~  1e-14|1         |0.1085    |
 ---------------------------------------
              
             
 Summary of Detailed RC Type Statistics
 -----------------------------
 |Element Type    |Number    |
 |----------------+----------|
 |Other Linear Res|1198      |
 |                |          |
 |Constant Cap    |922       |
 -----------------------------
              
  
      
 *****************************************************************
 ******  option summary
 ******
 runlvl  = 3         bypass  = 2.0000    
 **info** dc convergence successful at Newton-Raphson method 
 ******  
 cmos inverter

 ****** operating point information tnom=  25.000 temp=  25.000 ******
 ****** operating point status is voltage   simulation time is     0.     
    node    =voltage      node    =voltage      node    =voltage

 +0:in      =   0.      0:n100__in= 664.4423p 0:n100__ou=   1.8000 
 +0:n100__vd=   1.8000  0:n100__vs=   3.9187n 0:n101__in= 622.4931p
 +0:n101__ou=   1.8000  0:n101__vd=   1.8000  0:n101__vs=   4.0512n
 +0:n102__in= 574.5510p 0:n102__ou=   1.8000  0:n102__vd=   1.8000 
 +0:n102__vs=   4.0512n 0:n103__in= 520.6162p 0:n103__ou=   1.8000 
 +0:n103__vd=   1.8000  0:n103__vs=   4.1212n 0:n104__in= 460.6886p
 +0:n104__ou=   1.8000  0:n104__vd=   1.8000  0:n104__vs=   4.1212n
 +0:n105__in= 394.7683p 0:n105__ou=   1.8000  0:n105__vd=   1.8000 
 +0:n105__vs=   4.1244n 0:n106__in= 322.8553p 0:n106__ou=   1.8000 
 +0:n106__vd=   1.8000  0:n106__vs=   4.1244n 0:n107__in= 244.9494p
 +0:n107__ou=   1.8000  0:n107__vd=   1.8000  0:n107__vs=   4.0588n
 +0:n108__in= 157.1077p 0:n108__ou=   1.8000  0:n108__vd=   1.8000 
 +0:n108__vs=   4.0588n 0:n109__in= 127.8630p 0:n109__ou=   1.8000 
 +0:n109__vd=   1.8000  0:n109__vs=   3.9238n 0:n10__in = 574.5510p
 +0:n10__out=   1.8000  0:n10__vdd=   1.8000  0:n10__vss= 111.1971p
 +0:n110__in= 789.5440p 0:n110__ou=   1.8000  0:n110__vd=   1.8000 
 +0:n110__vs=   3.9238n 0:n111__in= 784.3029p 0:n111__ou=   1.8000 
 +0:n111__vd=   1.8000  0:n111__vs=   1.9247n 0:n112__in= 792.6145p
 +0:n112__ou=   1.8000  0:n112__vd=   1.8000  0:n112__vs=   1.9248n
 +0:n113__in= 772.3173p 0:n113__ou=   1.8000  0:n113__vd=   1.8000 
 +0:n113__vs= 178.4273p 0:n114__in= 780.6290p 0:n114__ou=   1.8000 
 +0:n114__vd=   1.8000  0:n114__vs=  33.4920p 0:n115__in= 754.3391p
 +0:n115__ou=   1.8000  0:n115__vd=   1.8000  0:n115__vs= 110.7720p
 +0:n116__in= 762.6507p 0:n116__ou=   1.8000  0:n116__vd=   1.8000 
 +0:n116__vs= 242.0291p 0:n117__in= 730.3680p 0:n117__ou=   1.8000 
 +0:n117__vd=   1.8000  0:n117__vs= 256.2241p 0:n118__in= 738.6797p
 +0:n118__ou=   1.8000  0:n118__vd=   1.8000  0:n118__vs= 311.1634p
 +0:n119__in= 700.4043p 0:n119__ou=   1.8000  0:n119__vd=   1.8000 
 +0:n119__vs= 313.5019p 0:n11__in = 520.6162p 0:n11__out=   1.8000 
 +0:n11__vdd=   1.8000  0:n11__vss=  15.4030p 0:n120__in= 708.7159p
 +0:n120__ou=   1.8000  0:n120__vd=   1.8000  0:n120__vs= 247.1005p
 +0:n121__in= 664.4477p 0:n121__ou=   1.8000  0:n121__vs= 158.1750p
 +0:n122__in= 672.7593p 0:n122__ou=   1.8000  0:n122__vd=   1.8000 
 +0:n122__vs= 111.1971p 0:n123__in= 622.4984p 0:n123__ou=   1.8000 
 +0:n123__vd=   1.8000  0:n123__vs=  15.1217p 0:n124__in= 630.8101p
 +0:n124__ou=   1.8000  0:n124__vd=   1.8000  0:n124__vs=  14.2918p
 +0:n125__in= 574.5564p 0:n125__ou=   1.8000  0:n125__vd=   1.8000 
 +0:n125__vs=   3.8509n 0:n126__in= 582.8680p 0:n126__ou=   1.8000 
 +0:n126__vd=   1.8000  0:n126__vs=   3.8509n 0:n127__in= 520.6216p
 +0:n127__ou=   1.8000  0:n127__vd=   1.8000  0:n127__vs=   3.9282n
 +0:n128__in= 528.9332p 0:n128__ou=   1.8000  0:n128__vd=   1.8000 
 +0:n128__vs=   3.9282n 0:n129__in= 460.6940p 0:n129__ou=   1.8000 
 +0:n129__vd=   1.8000  0:n129__vs=   4.0595n 0:n12__in = 460.6886p
 +0:n12__out=   1.8000  0:n12__vdd=   1.8000  0:n12__vss=  15.4470p
 +0:n130__in= 469.0056p 0:n130__ou=   1.8000  0:n130__vd=   1.8000 
 +0:n130__vs=   4.0595n 0:n131__in= 394.7737p 0:n131__ou=   1.8000 
 +0:n131__vd=   1.8000  0:n131__vs=   4.1286n 0:n132__in= 403.0853p
 +0:n132__ou=   1.8000  0:n132__vd=   1.8000  0:n132__vs=   4.1286n
 +0:n133__in= 322.8606p 0:n133__ou=   1.8000  0:n133__vd=   1.8000 
 +0:n133__vs=   4.1309n 0:n134__in= 331.1723p 0:n134__ou=   1.8000 
 +0:n134__vd=   1.8000  0:n134__vs=   4.1309n 0:n135__in= 244.9548p
 +0:n135__ou=   1.8000  0:n135__vd=   1.8000  0:n135__vs=   4.0645n
 +0:n136__in= 253.2664p 0:n136__ou=   1.8000  0:n136__vd=   1.8000 
 +0:n136__vs=   4.0645n 0:n137__in= 157.1130p 0:n137__ou=   1.8000 
 +0:n137__vd=   1.8000  0:n137__vs=   3.9286n 0:n138__in= 165.4247p
 +0:n138__ou=   1.8000  0:n138__vd=   1.8000  0:n138__vs=   3.9286n
 +0:n139__in= 789.5440p 0:n139__ou=   1.8000  0:n139__vd=   1.8000 
 +0:n139__vs=   1.9238n 0:n13__in = 394.7683p 0:n13__out=   1.8000 
 +0:n13__vss=   3.8509n 0:n140__in= 789.5384p 0:n140__ou=   1.8000 
 +0:n140__vd=   1.8000  0:n140__vs=   1.9239n 0:n141__in= 784.2975p
 +0:n141__ou=   1.8000  0:n141__vd=   1.8000  0:n141__vs=  89.6239p
 +0:n142__in= 772.3120p 0:n142__ou=   1.8000  0:n142__vd=   1.8000 
 +0:n142__vs=  16.8356p 0:n143__in= 754.3337p 0:n143__ou=   1.8000 
 +0:n143__vd=   1.8000  0:n143__vs=  55.6030p 0:n144__in= 730.3627p
 +0:n144__ou=   1.8000  0:n144__vd=   1.8000  0:n144__vs= 121.5137p
 +0:n145__in= 700.3989p 0:n145__ou=   1.8000  0:n145__vd=   1.8000 
 +0:n145__vs= 128.6785p 0:n146__in= 664.4423p 0:n146__ou=   1.8000 
 +0:n146__vd=   1.8000  0:n146__vs= 156.2330p 0:n147__in= 622.4931p
 +0:n147__ou=   1.8000  0:n147__vd=   1.8000  0:n147__vs= 157.4149p
 +0:n148__in= 574.5510p 0:n148__ou=   1.8000  0:n148__vd=   1.8000 
 +0:n148__vs= 124.0741p 0:n149__in= 520.6162p 0:n149__ou=   1.8000 
 +0:n149__vd=   1.8000  0:n149__vs=  79.4661p 0:n14__in = 322.8553p
 +0:n14__out=   1.8000  0:n14__vdd=   1.8000  0:n14__vss=   3.8509n
 +0:n150__in= 460.6886p 0:n150__ou=   1.8000  0:n150__vs=  55.8257p
 +0:n151__in= 394.7683p 0:n151__ou=   1.8000  0:n151__vd=   1.8000 
 +0:n151__vs=   8.0088p 0:n152__in= 322.8553p 0:n152__ou=   1.8000 
 +0:n152__vd=   1.8000  0:n152__vs=   8.2019p 0:n153__in= 244.9494p
 +0:n153__ou=   1.8000  0:n153__vd=   1.8000  0:n153__vs=   3.8307n
 +0:n154__in= 157.1077p 0:n154__ou=   1.8000  0:n154__vd=   1.8000 
 +0:n154__vs=   3.8695n 0:n155__in= 127.8630p 0:n155__ou=   1.8000 
 +0:n155__vd=   1.8000  0:n155__vs=   3.9354n 0:n156__in= 798.1433p
 +0:n156__ou=   1.8000  0:n156__vd=   1.8000  0:n156__vs=   3.9701n
 +0:n157__in= 792.6145p 0:n157__ou=   1.8000  0:n157__vd=   1.8000 
 +0:n157__vs=   3.9713n 0:n158__in= 784.3029p 0:n158__ou=   1.8000 
 +0:n158__vd=   1.8000  0:n158__vs=   3.9379n 0:n159__in= 780.6290p
 +0:n159__ou=   1.8000  0:n159__vd=   1.8000  0:n159__vs=   3.8697n
 +0:n15__in = 244.9494p 0:n15__out=   1.8000  0:n15__vdd=   1.8000 
 +0:n15__vss=   3.9282n 0:n160__in= 772.3173p 0:n160__ou=   1.8000 
 +0:n160__vd=   1.8000  0:n160__vs=   1.9150n 0:n161__in= 762.6507p
 +0:n161__ou=   1.8000  0:n161__vd=   1.8000  0:n162__in= 754.3391p
 +0:n162__ou=   1.8000  0:n162__vd=   1.8000  0:n163__in= 738.6797p
 +0:n163__ou=   1.8000  0:n163__vd=   1.8000  0:n164__in= 730.3680p
 +0:n164__ou=   1.8000  0:n164__vd=   1.8000  0:n165__in= 708.7159p
 +0:n165__ou=   1.8000  0:n165__vd=   1.8000  0:n166__in= 700.4043p
 +0:n166__ou=   1.8000  0:n166__vd=   1.8000  0:n167__in= 672.7593p
 +0:n167__ou=   1.8000  0:n168__in= 664.4477p 0:n168__ou=   1.8000 
 +0:n168__vd=   1.8000  0:n169__in= 630.8101p 0:n169__ou=   1.8000 
 +0:n169__vd=   1.8000  0:n16__in = 157.1077p 0:n16__out=   1.8000 
 +0:n16__vdd=   1.8000  0:n16__vss=   3.9282n 0:n170__in= 622.4984p
 +0:n170__ou=   1.8000  0:n170__vd=   1.8000  0:n171__in= 582.8680p
 +0:n171__ou=   1.8000  0:n171__vd=   1.8000  0:n172__in= 574.5564p
 +0:n172__ou=   1.8000  0:n173__in= 528.9332p 0:n173__ou=   1.8000 
 +0:n174__in= 520.6216p 0:n174__ou=   1.8000  0:n175__in= 469.0056p
 +0:n175__ou=   1.8000  0:n176__in= 460.6940p 0:n176__ou=   1.8000 
 +0:n177__in= 403.0853p 0:n177__ou=   1.8000  0:n178__in= 394.7737p
 +0:n178__ou=   1.8000  0:n179__in= 331.1723p 0:n179__ou=   1.8000 
 +0:n17__in = 127.8630p 0:n17__out=   1.8000  0:n17__vdd=   1.8000 
 +0:n17__vss=   4.0595n 0:n180__in= 322.8606p 0:n180__ou=   1.8000 
 +0:n181__in= 253.2664p 0:n181__ou=   1.8000  0:n182__in= 244.9548p
 +0:n182__ou=   1.8000  0:n183__in= 165.4247p 0:n183__ou=   1.8000 
 +0:n184__in= 157.1130p 0:n184__ou=   1.8000  0:n185__in= 798.1433p
 +0:n185__ou=   1.8000  0:n186__in= 789.5384p 0:n186__ou=   1.8000 
 +0:n187__in= 784.2975p 0:n187__ou=   1.8000  0:n188__in= 772.3120p
 +0:n188__ou=   1.8000  0:n189__in= 754.3337p 0:n189__ou=   1.8000 
 +0:n18__in = 789.5440p 0:n18__out=   1.8000  0:n18__vdd=   1.8000 
 +0:n18__vss=   4.0595n 0:n190__in= 730.3627p 0:n190__ou=   1.8000 
 +0:n191__in= 700.3989p 0:n191__ou=   1.8000  0:n192__in= 664.4423p
 +0:n192__ou=   1.8000  0:n193__in= 622.4931p 0:n193__ou=   1.8000 
 +0:n194__in= 574.5510p 0:n194__ou=   1.8000  0:n195__in= 520.6162p
 +0:n195__ou=   1.8000  0:n196__in= 460.6886p 0:n196__ou=   1.8000 
 +0:n197__in= 394.7683p 0:n197__ou=   1.8000  0:n198__in= 322.8553p
 +0:n198__ou=   1.8000  0:n199__in= 244.9494p 0:n199__ou=   1.8000 
 +0:n19__in = 784.3029p 0:n19__out=   1.8000  0:n19__vdd=   1.8000 
 +0:n19__vss=   4.1286n 0:n1__in  = 798.1433p 0:n1__out =   1.8000 
 +0:n1__vddi=   1.8000  0:n1__vss1= 178.4273p 0:n200__in= 157.1077p
 +0:n200__ou=   1.8000  0:n201__in= 127.8630p 0:n201__ou=   1.8000 
 +0:n202__in= 789.5440p 0:n202__ou=   1.8000  0:n203__in= 784.3029p
 +0:n203__ou=   1.8000  0:n204__in= 792.6145p 0:n204__ou=   1.8000 
 +0:n205__in= 772.3173p 0:n205__ou=   1.8000  0:n206__in= 780.6290p
 +0:n206__ou=   1.8000  0:n207__in= 754.3391p 0:n207__ou=   1.8000 
 +0:n208__in= 762.6507p 0:n208__ou=   1.8000  0:n209__in= 730.3680p
 +0:n209__ou=   1.8000  0:n20__in = 792.6145p 0:n20__out=   1.8000 
 +0:n20__vdd=   1.8000  0:n20__vss=   4.1286n 0:n210__in= 738.6797p
 +0:n210__ou=   1.8000  0:n211__in= 700.4043p 0:n211__ou=   1.8000 
 +0:n212__in= 708.7159p 0:n212__ou=   1.8000  0:n213__in= 664.4477p
 +0:n213__ou=   1.8000  0:n214__in= 672.7593p 0:n214__ou=   1.8000 
 +0:n215__in= 622.4984p 0:n215__ou=   1.8000  0:n216__in= 630.8101p
 +0:n216__ou=   1.8000  0:n217__in= 574.5564p 0:n217__ou=   1.8000 
 +0:n218__in= 582.8680p 0:n218__ou=   1.8000  0:n219__in= 520.6216p
 +0:n219__ou=   1.8000  0:n21__in = 772.3173p 0:n21__out=   1.8000 
 +0:n21__vdd=   1.8000  0:n21__vss=   4.1309n 0:n220__in= 528.9332p
 +0:n220__ou=   1.8000  0:n221__in= 460.6940p 0:n221__ou=   1.8000 
 +0:n222__in= 469.0056p 0:n222__ou=   1.8000  0:n223__in= 394.7737p
 +0:n223__ou=   1.8000  0:n224__in= 403.0853p 0:n224__ou=   1.8000 
 +0:n225__in= 322.8606p 0:n225__ou=   1.8000  0:n226__in= 331.1723p
 +0:n226__ou=   1.8000  0:n227__in= 244.9548p 0:n227__ou=   1.8000 
 +0:n228__in= 253.2664p 0:n228__ou=   1.8000  0:n229__in= 157.1130p
 +0:n229__ou=   1.8000  0:n22__in = 780.6290p 0:n22__out=   1.8000 
 +0:n22__vdd=   1.8000  0:n22__vss=   4.1309n 0:n230__in= 165.4247p
 +0:n230__ou=   1.8000  0:n231__in= 789.5440p 0:n231__ou=   1.8000 
 +0:n232__in= 789.5384p 0:n232__ou=   1.8000  0:n233__in= 784.2975p
 +0:n233__ou=   1.8000  0:n234__in= 772.3120p 0:n234__ou=   1.8000 
 +0:n235__in= 754.3337p 0:n235__ou=   1.8000  0:n236__in= 730.3627p
 +0:n236__ou=   1.8000  0:n237__in= 700.3989p 0:n237__ou=   1.8000 
 +0:n238__in= 664.4423p 0:n238__ou=   1.8000  0:n239__in= 622.4931p
 +0:n239__ou=   1.8000  0:n23__in = 754.3391p 0:n23__out=   1.8000 
 +0:n23__vdd=   1.8000  0:n23__vss=   4.0645n 0:n240__in= 574.5510p
 +0:n240__ou=   1.8000  0:n241__in= 520.6162p 0:n241__ou=   1.8000 
 +0:n242__in= 460.6886p 0:n242__ou=   1.8000  0:n243__in= 394.7683p
 +0:n243__ou=   1.8000  0:n244__in= 322.8553p 0:n244__ou=   1.8000 
 +0:n245__in= 244.9494p 0:n245__ou=   1.8000  0:n246__in= 157.1077p
 +0:n246__ou=   1.8000  0:n247__in= 127.8630p 0:n247__ou=   1.8000 
 +0:n248__in= 798.1433p 0:n248__ou=   1.8000  0:n249__in= 792.6145p
 +0:n249__ou=   1.8000  0:n24__in = 762.6507p 0:n24__out=   1.8000 
 +0:n24__vdd=   1.8000  0:n24__vss=   4.0645n 0:n250__in= 784.3029p
 +0:n250__ou=   1.8000  0:n251__in= 780.6290p 0:n251__ou=   1.8000 
 +0:n252__in= 772.3173p 0:n252__ou=   1.8000  0:n253__in= 762.6507p
 +0:n253__ou=   1.8000  0:n254__in= 754.3391p 0:n254__ou=   1.8000 
 +0:n255__in= 738.6797p 0:n255__ou=   1.8000  0:n256__in= 730.3680p
 +0:n256__ou=   1.8000  0:n257__in= 708.7159p 0:n257__ou=   1.8000 
 +0:n258__in= 700.4043p 0:n258__ou=   1.8000  0:n259__in= 672.7593p
 +0:n259__ou=   1.8000  0:n25__in = 730.3680p 0:n25__out=   1.8000 
 +0:n25__vdd=   1.8000  0:n25__vss=   3.9286n 0:n260__in= 664.4477p
 +0:n260__ou=   1.8000  0:n261__in= 630.8101p 0:n261__ou=   1.8000 
 +0:n262__in= 622.4984p 0:n262__ou=   1.8000  0:n263__in= 582.8680p
 +0:n263__ou=   1.8000  0:n264__in= 574.5564p 0:n264__ou=   1.8000 
 +0:n265__in= 528.9332p 0:n265__ou=   1.8000  0:n266__in= 520.6216p
 +0:n266__ou=   1.8000  0:n267__in= 469.0056p 0:n267__ou=   1.8000 
 +0:n268__in= 460.6940p 0:n268__ou=   1.8000  0:n269__in= 403.0853p
 +0:n269__ou=   1.8000  0:n26__in = 738.6797p 0:n26__out=   1.8000 
 +0:n26__vdd=   1.8000  0:n26__vss=   3.9286n 0:n270__in= 394.7737p
 +0:n270__ou=   1.8000  0:n271__in= 331.1723p 0:n271__ou=   1.8000 
 +0:n272__in= 322.8606p 0:n272__ou=   1.8000  0:n273__in= 253.2664p
 +0:n273__ou=   1.8000  0:n274__in= 244.9548p 0:n274__ou=   1.8000 
 +0:n275__in= 165.4247p 0:n275__ou=   1.8000  0:n276__in= 157.1130p
 +0:n276__ou=   1.8000  0:n277__in= 798.1433p 0:n277__ou=   1.8000 
 +0:n278__in= 789.5384p 0:n278__ou=   1.8000  0:n279__in= 784.2975p
 +0:n279__ou=   1.8000  0:n27__in = 700.4043p 0:n27__out=   1.8000 
 +0:n27__vdd=   1.8000  0:n27__vss=   1.9241n 0:n280__in= 772.3120p
 +0:n280__ou=   1.8000  0:n281__in= 754.3337p 0:n281__ou=   1.8000 
 +0:n282__in= 730.3627p 0:n282__ou=   1.8000  0:n283__in= 700.3989p
 +0:n283__ou=   1.8000  0:n284__in= 664.4423p 0:n284__ou=   1.8000 
 +0:n285__in= 622.4931p 0:n285__ou=   1.8000  0:n286__in= 574.5510p
 +0:n286__ou=   1.8000  0:n287__in= 520.6162p 0:n287__ou=   1.8000 
 +0:n288__in= 460.6886p 0:n288__ou=   1.8000  0:n289__in= 394.7683p
 +0:n289__ou=   1.8000  0:n28__in = 708.7159p 0:n28__out=   1.8000 
 +0:n28__vdd=   1.8000  0:n28__vss=   1.9242n 0:n290__in= 322.8553p
 +0:n290__ou=   1.8000  0:n291__in= 244.9494p 0:n291__ou=   1.8000 
 +0:n292__in= 157.1077p 0:n292__ou=   1.8000  0:n293__in= 127.8630p
 +0:n293__ou=   1.8000  0:n294__in= 789.5440p 0:n295__in= 784.3029p
 +0:n296__in= 792.6145p 0:n297__in= 772.3173p 0:n298__in= 780.6290p
 +0:n299__in= 754.3391p 0:n29__in = 664.4477p 0:n29__out=   1.8000 
 +0:n29__vdd=   1.8000  0:n29__vss= 172.7316p 0:n2__in  = 789.5384p
 +0:n2__out =   1.8000  0:n2__vddi=   1.8000  0:n2__vss1=  33.4920p
 +0:n300__in= 762.6507p 0:n301__in= 730.3680p 0:n302__in= 738.6797p
 +0:n303__in= 700.4043p 0:n304__in= 708.7159p 0:n305__in= 664.4477p
 +0:n306__in= 672.7593p 0:n307__in= 622.4984p 0:n308__in= 630.8101p
 +0:n309__in= 574.5564p 0:n30__in = 672.7593p 0:n30__out=   1.8000 
 +0:n30__vdd=   1.8000  0:n30__vss=  33.3831p 0:n310__in= 582.8680p
 +0:n311__in= 520.6216p 0:n312__in= 528.9332p 0:n313__in= 460.6940p
 +0:n314__in= 469.0056p 0:n315__in= 394.7737p 0:n316__in= 403.0853p
 +0:n317__in= 322.8606p 0:n318__in= 331.1723p 0:n319__in= 244.9548p
 +0:n31__in = 622.4984p 0:n31__out=   1.8000  0:n31__vdd=   1.8000 
 +0:n31__vss= 109.6332p 0:n320__in= 253.2664p 0:n321__in= 157.1130p
 +0:n322__in= 165.4247p 0:n323__in= 789.5440p 0:n324__in= 789.5384p
 +0:n325__in= 784.2975p 0:n326__in= 772.3120p 0:n327__in= 754.3337p
 +0:n328__in= 730.3627p 0:n329__in= 700.3989p 0:n32__in = 630.8101p
 +0:n32__out=   1.8000  0:n32__vdd=   1.8000  0:n32__vss= 238.8343p
 +0:n330__in= 664.4423p 0:n331__in= 622.4931p 0:n332__in= 574.5510p
 +0:n333__in= 520.6162p 0:n334__in= 460.6886p 0:n335__in= 394.7683p
 +0:n336__in= 322.8553p 0:n337__in= 244.9494p 0:n338__in= 157.1077p
 +0:n339__in= 127.8630p 0:n33__in = 574.5564p 0:n33__out=   1.8000 
 +0:n33__vdd=   1.8000  0:n33__vss= 252.5624p 0:n340__in= 798.1433p
 +0:n341__in= 792.6145p 0:n342__in= 784.3029p 0:n343__in= 780.6290p
 +0:n344__in= 772.3173p 0:n345__in= 762.6507p 0:n346__in= 754.3391p
 +0:n347__in= 738.6797p 0:n348__in= 730.3680p 0:n349__in= 708.7159p
 +0:n34__in = 582.8680p 0:n34__out=   1.8000  0:n34__vss= 306.0856p
 +0:n350__in= 700.4043p 0:n351__in= 672.7593p 0:n352__in= 664.4477p
 +0:n353__in= 630.8101p 0:n354__in= 622.4984p 0:n355__in= 582.8680p
 +0:n356__in= 574.5564p 0:n357__in= 528.9332p 0:n358__in= 520.6216p
 +0:n359__in= 469.0056p 0:n35__in = 520.6216p 0:n35__out=   1.8000 
 +0:n35__vdd=   1.8000  0:n35__vss= 306.5919p 0:n360__in= 460.6940p
 +0:n361__in= 403.0853p 0:n362__in= 394.7737p 0:n363__in= 331.1723p
 +0:n364__in= 322.8606p 0:n365__in= 253.2664p 0:n366__in= 244.9548p
 +0:n367__in= 165.4247p 0:n368__in= 157.1130p 0:n369__in= 798.1433p
 +0:n36__in = 528.9332p 0:n36__out=   1.8000  0:n36__vdd=   1.8000 
 +0:n36__vss= 238.3583p 0:n370__in= 789.5384p 0:n371__in= 784.2975p
 +0:n372__in= 772.3120p 0:n373__in= 754.3337p 0:n374__in= 730.3627p
 +0:n375__in= 700.3989p 0:n376__in= 664.4423p 0:n377__in= 622.4931p
 +0:n378__in= 574.5510p 0:n379__in= 520.6162p 0:n37__in = 460.6940p
 +0:n37__out=   1.8000  0:n37__vdd=   1.8000  0:n37__vss= 148.2272p
 +0:n380__in= 460.6886p 0:n381__in= 394.7683p 0:n382__in= 322.8553p
 +0:n383__in= 244.9494p 0:n384__in= 157.1077p 0:n385__in= 127.8630p
 +0:n386__in= 789.5440p 0:n387__in= 784.3029p 0:n388__in= 792.6145p
 +0:n389__in= 772.3173p 0:n38__in = 469.0056p 0:n38__out=   1.8000 
 +0:n38__vdd=   1.8000  0:n38__vss= 100.4627p 0:n390__in= 780.6290p
 +0:n391__in= 754.3391p 0:n392__in= 762.6507p 0:n393__in= 730.3680p
 +0:n394__in= 738.6797p 0:n395__in= 700.4043p 0:n396__in= 708.7159p
 +0:n397__in= 664.4477p 0:n398__in= 672.7593p 0:n399__in= 622.4984p
 +0:n39__in = 394.7737p 0:n39__out=   1.8000  0:n39__vdd=   1.8000 
 +0:n39__vss=  17.2053p 0:n3__in  = 784.2975p 0:n3__out =   1.8000 
 +0:n3__vddi=   1.8000  0:n3__vss1= 110.7720p 0:n400__in= 630.8101p
 +0:n401__in= 574.5564p 0:n402__in= 582.8680p 0:n403__in= 520.6216p
 +0:n404__in= 528.9332p 0:n405__in= 460.6940p 0:n406__in= 469.0056p
 +0:n407__in= 394.7737p 0:n408__in= 403.0853p 0:n409__in= 322.8606p
 +0:n40__in = 403.0853p 0:n40__out=   1.8000  0:n40__vdd=   1.8000 
 +0:n40__vss=  16.8475p 0:n410__in= 331.1723p 0:n411__in= 244.9548p
 +0:n412__in= 253.2664p 0:n413__in= 157.1130p 0:n414__in= 165.4247p
 +0:n415__in= 789.5440p 0:n416__in= 789.5384p 0:n417__in= 784.2975p
 +0:n418__in= 772.3120p 0:n419__in= 754.3337p 0:n41__in = 322.8606p
 +0:n41__out=   1.8000  0:n41__vdd=   1.8000  0:n41__vss=   3.8508n
 +0:n420__in= 730.3627p 0:n421__in= 700.3989p 0:n422__in= 664.4423p
 +0:n423__in= 622.4931p 0:n424__in= 574.5510p 0:n425__in= 520.6162p
 +0:n426__in= 460.6886p 0:n427__in= 394.7683p 0:n428__in= 322.8553p
 +0:n429__in= 244.9494p 0:n42__in = 331.1723p 0:n42__out=   1.8000 
 +0:n42__vdd=   1.8000  0:n42__vss=   3.8508n 0:n430__in= 157.1077p
 +0:n431__in= 127.8630p 0:n432__in= 798.1433p 0:n433__in= 792.6145p
 +0:n434__in= 784.3029p 0:n435__in= 780.6290p 0:n436__in= 772.3173p
 +0:n437__in= 762.6507p 0:n438__in= 754.3391p 0:n439__in= 738.6797p
 +0:n43__in = 244.9548p 0:n43__out=   1.8000  0:n43__vdd=   1.8000 
 +0:n43__vss=   3.9271n 0:n440__in= 730.3680p 0:n441__in= 708.7159p
 +0:n442__in= 700.4043p 0:n443__in= 672.7593p 0:n444__in= 664.4477p
 +0:n445__in= 630.8101p 0:n446__in= 622.4984p 0:n447__in= 582.8680p
 +0:n448__in= 574.5564p 0:n449__in= 528.9332p 0:n44__in = 253.2664p
 +0:n44__out=   1.8000  0:n44__vdd=   1.8000  0:n44__vss=   3.9271n
 +0:n450__in= 520.6216p 0:n451__in= 469.0056p 0:n452__in= 460.6940p
 +0:n453__in= 403.0853p 0:n454__in= 394.7737p 0:n455__in= 331.1723p
 +0:n456__in= 322.8606p 0:n457__in= 253.2664p 0:n458__in= 244.9548p
 +0:n459__in= 165.4247p 0:n45__in = 157.1130p 0:n45__out=   1.8000 
 +0:n45__vdd=   1.8000  0:n45__vss=   4.0563n 0:n460__in= 157.1130p
 +0:n461__in= 798.1433p 0:n462__in= 789.5384p 0:n463__in= 784.2975p
 +0:n464__in= 772.3120p 0:n465__in= 754.3337p 0:n466__in= 730.3627p
 +0:n467__in= 700.3989p 0:n468__in= 664.4423p 0:n469__in= 622.4931p
 +0:n46__in = 165.4247p 0:n46__out=   1.8000  0:n46__vdd=   1.8000 
 +0:n46__vss=   4.0563n 0:n470__in= 574.5510p 0:n471__in= 520.6162p
 +0:n472__in= 460.6886p 0:n473__in= 394.7683p 0:n474__in= 322.8553p
 +0:n475__in= 244.9494p 0:n476__in= 157.1077p 0:n477__in= 127.8630p
 +0:n478__in= 789.5440p 0:n479__in= 784.3029p 0:n47__in = 789.5440p
 +0:n47__out=   1.8000  0:n47__vdd=   1.8000  0:n47__vss=   4.1235n
 +0:n480__in= 792.6145p 0:n481__in= 772.3173p 0:n482__in= 780.6290p
 +0:n483__in= 754.3391p 0:n484__in= 762.6507p 0:n485__in= 730.3680p
 +0:n486__in= 738.6797p 0:n487__in= 700.4043p 0:n488__in= 708.7159p
 +0:n489__in= 664.4477p 0:n48__in = 789.5384p 0:n48__out=   1.8000 
 +0:n48__vdd=   1.8000  0:n48__vss=   4.1235n 0:n490__in= 672.7593p
 +0:n491__in= 622.4984p 0:n492__in= 630.8101p 0:n493__in= 574.5564p
 +0:n494__in= 582.8680p 0:n495__in= 520.6216p 0:n496__in= 528.9332p
 +0:n497__in= 460.6940p 0:n498__in= 469.0056p 0:n499__in= 394.7737p
 +0:n49__in = 784.2975p 0:n49__out=   1.8000  0:n49__vdd=   1.8000 
 +0:n49__vss=   4.1240n 0:n4__in  = 772.3120p 0:n4__out =   1.8000 
 +0:n4__vddi=   1.8000  0:n4__vss1= 242.0291p 0:n500__in= 403.0853p
 +0:n501__in= 322.8606p 0:n502__in= 331.1723p 0:n503__in= 244.9548p
 +0:n504__in= 253.2664p 0:n505__in= 157.1130p 0:n506__in= 165.4247p
 +0:n508__in=   0.      0:n509__in=   0.      0:n50__in = 772.3120p
 +0:n50__out=   1.8000  0:n50__vdd=   1.8000  0:n50__vss=   4.1240n
 +0:n510__in=   0.      0:n511__in=   0.      0:n512__in=   0.     
 +0:n513__in=   0.      0:n514__in=   0.      0:n515__in=   0.     
 +0:n516__in=   0.      0:n51__in = 754.3337p 0:n51__out=   1.8000 
 +0:n51__vdd=   1.8000  0:n51__vss=   4.0558n 0:n52__in = 730.3627p
 +0:n52__out=   1.8000  0:n52__vdd=   1.8000  0:n52__vss=   4.0558n
 +0:n53__in = 700.3989p 0:n53__out=   1.8000  0:n53__vdd=   1.8000 
 +0:n53__vss=   3.9179n 0:n54__in = 664.4423p 0:n54__out=   1.8000 
 +0:n54__vdd=   1.8000  0:n54__vss=   3.9179n 0:n55__in = 622.4931p
 +0:n55__out=   1.8000  0:n55__vdd=   1.8000  0:n55__vss=   1.9259n
 +0:n56__in = 574.5510p 0:n56__out=   1.8000  0:n56__vdd=   1.8000 
 +0:n56__vss=   1.9260n 0:n57__in = 520.6162p 0:n57__out=   1.8000 
 +0:n57__vdd=   1.8000  0:n57__vss= 172.1318p 0:n58__in = 460.6886p
 +0:n58__out=   1.8000  0:n58__vdd=   1.8000  0:n58__vss=  37.0527p
 +0:n59__in = 394.7683p 0:n59__out=   1.8000  0:n59__vdd=   1.8000 
 +0:n59__vss= 101.0518p 0:n5__in  = 754.3337p 0:n5__out =   1.8000 
 +0:n5__vddi=   1.8000  0:n5__vss1= 256.2241p 0:n60__in = 322.8553p
 +0:n60__out=   1.8000  0:n60__vdd=   1.8000  0:n60__vss= 232.9751p
 +0:n61__in = 244.9494p 0:n61__out=   1.8000  0:n61__vdd=   1.8000 
 +0:n61__vss= 247.3213p 0:n62__in = 157.1077p 0:n62__out=   1.8000 
 +0:n62__vdd=   1.8000  0:n62__vss= 302.5538p 0:n63__in = 127.8630p
 +0:n63__out=   1.8000  0:n63__vss= 305.2716p 0:n64__in = 798.1433p
 +0:n64__out=   1.8000  0:n64__vdd=   1.8000  0:n64__vss= 239.2494p
 +0:n65__in = 792.6145p 0:n65__out=   1.8000  0:n65__vdd=   1.8000 
 +0:n65__vss= 150.5734p 0:n66__in = 784.3029p 0:n66__out=   1.8000 
 +0:n66__vdd=   1.8000  0:n66__vss= 103.6761p 0:n67__in = 780.6290p
 +0:n67__out=   1.8000  0:n67__vdd=   1.8000  0:n67__vss=  16.5489p
 +0:n68__in = 772.3173p 0:n68__out=   1.8000  0:n68__vdd=   1.8000 
 +0:n68__vss=  16.4805p 0:n69__in = 762.6507p 0:n69__out=   1.8000 
 +0:n69__vdd=   1.8000  0:n69__vss=   3.8545n 0:n6__in  = 730.3627p
 +0:n6__out =   1.8000  0:n6__vddi=   1.8000  0:n6__vss1= 311.1634p
 +0:n70__in = 754.3391p 0:n70__out=   1.8000  0:n70__vdd=   1.8000 
 +0:n70__vss=   3.8545n 0:n71__in = 738.6797p 0:n71__out=   1.8000 
 +0:n71__vdd=   1.8000  0:n71__vss=   3.9185n 0:n72__in = 730.3680p
 +0:n72__out=   1.8000  0:n72__vdd=   1.8000  0:n72__vss=   3.9185n
 +0:n73__in = 708.7159p 0:n73__out=   1.8000  0:n73__vdd=   1.8000 
 +0:n73__vss=   4.0504n 0:n74__in = 700.4043p 0:n74__out=   1.8000 
 +0:n74__vdd=   1.8000  0:n74__vss=   4.0504n 0:n75__in = 672.7593p
 +0:n75__out=   1.8000  0:n75__vdd=   1.8000  0:n75__vss=   4.1200n
 +0:n76__in = 664.4477p 0:n76__out=   1.8000  0:n76__vdd=   1.8000 
 +0:n76__vss=   4.1200n 0:n77__in = 630.8101p 0:n77__out=   1.8000 
 +0:n77__vdd=   1.8000  0:n77__vss=   4.1227n 0:n78__in = 622.4984p
 +0:n78__out=   1.8000  0:n78__vdd=   1.8000  0:n78__vss=   4.1227n
 +0:n79__in = 582.8680p 0:n79__out=   1.8000  0:n79__vdd=   1.8000 
 +0:n79__vss=   4.0567n 0:n7__in  = 700.3989p 0:n7__out =   1.8000 
 +0:n7__vddi=   1.8000  0:n7__vss1= 313.5019p 0:n80__in = 574.5564p
 +0:n80__out=   1.8000  0:n80__vdd=   1.8000  0:n80__vss=   4.0567n
 +0:n81__in = 528.9332p 0:n81__out=   1.8000  0:n81__vdd=   1.8000 
 +0:n81__vss=   3.9211n 0:n82__in = 520.6216p 0:n82__out=   1.8000 
 +0:n82__vdd=   1.8000  0:n82__vss=   3.9211n 0:n83__in = 469.0056p
 +0:n83__out=   1.8000  0:n83__vdd=   1.8000  0:n83__vss=   1.9253n
 +0:n84__in = 460.6940p 0:n84__out=   1.8000  0:n84__vdd=   1.8000 
 +0:n84__vss=   1.9253n 0:n85__in = 403.0853p 0:n85__out=   1.8000 
 +0:n85__vdd=   1.8000  0:n85__vss= 173.5361p 0:n86__in = 394.7737p
 +0:n86__out=   1.8000  0:n86__vdd=   1.8000  0:n86__vss=  37.0825p
 +0:n87__in = 331.1723p 0:n87__out=   1.8000  0:n87__vdd=   1.8000 
 +0:n87__vss= 101.3111p 0:n88__in = 322.8606p 0:n88__out=   1.8000 
 +0:n88__vdd=   1.8000  0:n88__vss= 233.7492p 0:n89__in = 253.2664p
 +0:n89__out=   1.8000  0:n89__vdd=   1.8000  0:n89__vss= 248.2123p
 +0:n8__in  = 664.4423p 0:n8__out =   1.8000  0:n8__vddi=   1.8000 
 +0:n8__vss1= 247.1005p 0:n90__in = 244.9548p 0:n90__out=   1.8000 
 +0:n90__vdd=   1.8000  0:n90__vss= 303.7990p 0:n91__in = 165.4247p
 +0:n91__out=   1.8000  0:n91__vdd=   1.8000  0:n91__vss= 306.9750p
 +0:n92__in = 157.1130p 0:n92__out=   1.8000  0:n92__vss= 241.4112p
 +0:n93__in = 798.1433p 0:n93__out=   1.8000  0:n93__vdd=   1.8000 
 +0:n93__vss= 153.0368p 0:n94__in = 789.5384p 0:n94__out=   1.8000 
 +0:n94__vdd=   1.8000  0:n94__vss= 106.3361p 0:n95__in = 784.2975p
 +0:n95__out=   1.8000  0:n95__vdd=   1.8000  0:n95__vss=  16.0202p
 +0:n96__in = 772.3120p 0:n96__out=   1.8000  0:n96__vdd=   1.8000 
 +0:n96__vss=  15.8190p 0:n97__in = 754.3337p 0:n97__out=   1.8000 
 +0:n97__vdd=   1.8000  0:n97__vss=   3.8545n 0:n98__in = 730.3627p
 +0:n98__out=   1.8000  0:n98__vdd=   1.8000  0:n98__vss=   3.8545n
 +0:n99__in = 700.3989p 0:n99__out=   1.8000  0:n99__vdd=   1.8000 
 +0:n99__vss=   3.9187n 0:n9__in  = 622.4931p 0:n9__out =   1.8000 
 +0:n9__vddi=   1.8000  0:n9__vss1= 158.1750p 0:out     =   1.8000 
 +0:vddio1  =   1.8000  0:vss1    =   0.     

 ******
 cmos inverter

 ****** transient analysis tnom=  25.000 temp=  25.000 ******
 avg_pwr=  -1.1318m  from=  10.0000f     to=  50.0000n

          ***** job concluded
 ******  
 cmos inverter

 ****** job statistics summary tnom=  25.000 temp=  25.000 ******
  
 ******  Machine Information  ******
 CPU:
 model name	: Intel(R) Xeon(R) w3-2423
 cpu MHz	: 806.068
 CPU(s)		: 12
  
 OS:
 Linux version 5.14.0-611.11.1.el9_7.x86_64 (mockbuild@x86-64-04.build.eng.rdu2.redhat.com) (gcc (GCC) 11.5.0 20240719 (Red Hat 11.5.0-11), GNU ld version 2.35.2-67.el9) #1 SMP PREEMPT_DYNAMIC Tue Nov 25 05:13:22 EST 2025

 System loadavg : 1.34 0.73 0.44 3/1125 21535


  ******  PrimeSim HSPICE Threads Information  ******

  Command Line Threads Count :     1
  Available CPU Count        :    12
  Actual Threads Count       :     1


  ******  Circuit Statistics  ******
  # nodes       =    1797 # elements   =    2453
  # resistors   =    1198 # capacitors =     922 # inductors   =       0
  # mutual_inds =       0 # vccs       =       0 # vcvs        =       0
  # cccs        =       0 # ccvs       =       0 # volt_srcs   =       3
  # curr_srcs   =       0 # diodes     =       0 # bjts        =       0
  # jfets       =       0 # mosfets    =     330 # U elements  =       0
  # T elements  =       0 # W elements =       0 # B elements  =       0
  # S elements  =       0 # P elements =       0 # va device   =       0
  # vector_srcs =       0 # N elements =       0


  ******  Runtime Statistics (seconds)  ******

  analysis           time    # points   tot. iter  conv.iter
  op point           0.53           1           9
  dc sweep           0.39         181         428
  transient          4.62     5000001        4910        1854 rev=       100
  readin             0.04
  errchk             0.11
  setup              0.04
  output             0.00


           peak memory used        445.38 megabytes
           total cpu time            5.49 seconds
           total elapsed time        5.54 seconds
           job started at     17:51:54 12/05/2025
           job ended   at     17:51:59 12/05/2025

>info:         ***** hspice job concluded
           job total runtime         5.54 seconds


 lic: Release hspice token(s) 
 lic: total license checkout elapse time:        0.04(s)
