$DATA1 SOURCE='PrimeSim HSPICE' VERSION='T-2022.06-SP1 linux64' PARAM_COUNT=0
.TITLE 'cmos inverter'
 avg_pwr          temper           alter#          
 -1.132e-03         25.0000        1               
