$DATA1 SOURCE='PrimeSim HSPICE' VERSION='T-2022.06-SP1 linux64' PARAM_COUNT=0
.TITLE '* =========================================================='
 t_d_rise         t_d_fall         temper           alter#          
  7.215e-11        6.884e-11         25.0000        1               
